*CLASS
&ALLOCATION_OBJECT
    1    1
ASSOCIATED
*STATE
NOT_ALLOCATED
    0
*ACTION
ALLOCATE
    0    0
*END_ACTION
*END_STATE
*STATE
&VARIABLE
    0
*ACTION
RELEASE
    0    0
*END_ACTION
*END_STATE
*STATE
NOT_THERE
    1
DEAD_STATE
*END_STATE
*END_CLASS
*OBJECT
&ALLOC
    0    0    0
*STATE
NOT_ALLOCATED
    1
INITIAL_STATE
*ACTION
ALLOCATE
    1    0
STRING
ID
&noval
*BLOCK
  0  0
terminate
&VARIABLE
*END_ACTION
*END_STATE
*STATE
&VARIABLE
    0
*ACTION
RELEASE
    0    0
*BLOCK
  0  0
terminate
NOT_ALLOCATED
*END_ACTION
*END_STATE
*END_OBJECT
*OBJECT
&DOMAIN
    0    0    0
*STATE
READY
    0
*ACTION
DIAG
    1    0
INT
LEVEL
0
*BLOCK
  0  0
terminate
READY
*END_ACTION
*END_STATE
*END_OBJECT
*CLASS
TOP_DCS_DOMAIN_V1_CLASS
    0    0
*STATE
NOT_READY
    0
*WHEN
 ( ANY_IN FWCHILDREN_FWSETSTATES IN_STATE {ERROR, EMERGENCY_OFF} )
    1    0
    2
FWCHILDREN_FWSETSTATES
any_in
in_state
    2
ERROR
EMERGENCY_OFF
do
&END_IN_STATE_WHEN0
    0
&THIS_OBJECT
*WHEN
 ( ALL_IN FWCHILDREN_FWSETSTATES IN_STATE OFF )
    1    0
    2
FWCHILDREN_FWSETSTATES
all_in
in_state
    1
OFF
do
&END_IN_STATE_WHEN1
    0
&THIS_OBJECT
*WHEN
 ( ALL_IN FWCHILDREN_FWSETSTATES IN_STATE READY )
    1    0
    2
FWCHILDREN_FWSETSTATES
all_in
in_state
    1
READY
do
&END_IN_STATE_WHEN2
    0
&THIS_OBJECT
*ACTION
SWITCH_ON
    1    0
STRING
RUN_TYPE
"PHYSICS"
*BLOCK
  0  0
do
LOAD
    1
SMODE
RUN_TYPE
&ALL_IN_FWFSMCONFDB_DCS_FWSETACTIONS
if
  1
 ( ANY_IN FWFSMCONFDB_DCS_FWSETSTATES NOT_IN_STATE READY )
    1    0
    2
FWFSMCONFDB_DCS_FWSETSTATES
any_in
not_in_state
    1
READY
  1  1
do
APPLY_RECIPE
    0
&ALL_IN_FWFSMCONFDB_DCS_FWSETACTIONS
do
SWITCH_ON
    1
RUN_TYPE
RUN_TYPE
&ALL_IN_FWCHILDREN_FWSETACTIONS
if
  1
 ( ANY_IN FWCHILDREN_FWSETSTATES NOT_IN_STATE READY )
    1    0
    2
FWCHILDREN_FWSETSTATES
any_in
not_in_state
    1
READY
  2  1
terminate
READY
*BLOCK
  1  1
terminate
ERROR
*BLOCK
  2  1
terminate
NOT_READY
*END_ACTION
*ACTION
SWITCH_OFF
    0    0
*BLOCK
  0  0
do
SWITCH_OFF
    0
&ALL_IN_FWCHILDREN_FWSETACTIONS
if
  1
 ( ANY_IN FWCHILDREN_FWSETSTATES NOT_IN_STATE OFF )
    1    0
    2
FWCHILDREN_FWSETSTATES
any_in
not_in_state
    1
OFF
  1  1
terminate
OFF
*BLOCK
  1  1
terminate
NOT_READY
*END_ACTION
*ACTION
DO_EMERGENCY_OFF
    0    0
*BLOCK
  0  0
do
DO_EMERGENCY_OFF
    0
&ALL_IN_FWCHILDREN_FWSETACTIONS
if
  1
 ( ANY_IN FWCHILDREN_FWSETSTATES NOT_IN_STATE EMERGENCY_OFF )
    1    0
    2
FWCHILDREN_FWSETSTATES
any_in
not_in_state
    1
EMERGENCY_OFF
  1  1
terminate
EMERGENCY_OFF
*BLOCK
  1  1
terminate
ERROR
*END_ACTION
*ACTION
LOAD
    1    0
STRING
RUN_TYPE
"PHYSICS"
*BLOCK
  0  0
do
RESET
    0
&ALL_IN_FWCHILDREN_FWSETACTIONS
do
UNLOAD
    0
&ALL_IN_FWFSMCONFDB_DCS_FWSETACTIONS
if
  1
 ( ANY_IN FWFSMCONFDB_DCS_FWSETSTATES NOT_IN_STATE NOT_READY )
    1    0
    2
FWFSMCONFDB_DCS_FWSETSTATES
any_in
not_in_state
    1
NOT_READY
  1  1
do
LOAD
    2
RUN_TYPE
RUN_TYPE
SMODE
RUN_TYPE
&ALL_IN_FWCHILDREN_FWSETACTIONS
if
  1
 ( ANY_IN FWFSMCONFDB_DCS_FWSETSTATES NOT_IN_STATE READY )
    1    0
    2
FWFSMCONFDB_DCS_FWSETSTATES
any_in
not_in_state
    1
READY
  2  1
terminate
NOT_READY
*BLOCK
  1  1
terminate
ERROR
*BLOCK
  2  1
terminate
ERROR
*END_ACTION
*ACTION
RESET
    0    0
*BLOCK
  0  0
do
RESET
    0
&ALL_IN_FWCHILDREN_FWSETACTIONS
do
UNLOAD
    0
&ALL_IN_FWFSMCONFDB_DCS_FWSETACTIONS
if
  1
 ( ANY_IN FWFSMCONFDB_DCS_FWSETSTATES NOT_IN_STATE NOT_READY )
    1    0
    2
FWFSMCONFDB_DCS_FWSETSTATES
any_in
not_in_state
    1
NOT_READY
  1  1
terminate
NOT_READY
*BLOCK
  1  1
terminate
ERROR
*END_ACTION
*ACTION
&END_IN_STATE_WHEN0
    0    0
*BLOCK
  0  0
terminate
ERROR
*END_ACTION
*ACTION
&END_IN_STATE_WHEN1
    0    0
*BLOCK
  0  0
terminate
OFF
*END_ACTION
*ACTION
&END_IN_STATE_WHEN2
    0    0
*BLOCK
  0  0
terminate
READY
*END_ACTION
*END_STATE
*STATE
READY
    0
*WHEN
 ( ANY_IN FWCHILDREN_FWSETSTATES IN_STATE {ERROR, EMERGENCY_OFF} )
    1    0
    2
FWCHILDREN_FWSETSTATES
any_in
in_state
    2
ERROR
EMERGENCY_OFF
do
&END_IN_STATE_WHEN0
    0
&THIS_OBJECT
*WHEN
 ( ALL_IN FWCHILDREN_FWSETSTATES IN_STATE OFF )
    1    0
    2
FWCHILDREN_FWSETSTATES
all_in
in_state
    1
OFF
do
&END_IN_STATE_WHEN1
    0
&THIS_OBJECT
*WHEN
 ( ANY_IN FWCHILDREN_FWSETSTATES NOT_IN_STATE READY )
    1    0
    2
FWCHILDREN_FWSETSTATES
any_in
not_in_state
    1
READY
do
&END_IN_STATE_WHEN2
    0
&THIS_OBJECT
*ACTION
SWITCH_OFF
    0    0
*BLOCK
  0  0
do
SWITCH_OFF
    0
&ALL_IN_FWCHILDREN_FWSETACTIONS
if
  1
 ( ANY_IN FWCHILDREN_FWSETSTATES NOT_IN_STATE OFF )
    1    0
    2
FWCHILDREN_FWSETSTATES
any_in
not_in_state
    1
OFF
  1  1
terminate
OFF
*BLOCK
  1  1
terminate
NOT_READY
*END_ACTION
*ACTION
DO_EMERGENCY_OFF
    0    0
*BLOCK
  0  0
do
DO_EMERGENCY_OFF
    0
&ALL_IN_FWCHILDREN_FWSETACTIONS
if
  1
 ( ANY_IN FWCHILDREN_FWSETSTATES NOT_IN_STATE EMERGENCY_OFF )
    1    0
    2
FWCHILDREN_FWSETSTATES
any_in
not_in_state
    1
EMERGENCY_OFF
  1  1
terminate
EMERGENCY_OFF
*BLOCK
  1  1
terminate
ERROR
*END_ACTION
*ACTION
RESET
    0    0
*BLOCK
  0  0
do
RESET
    0
&ALL_IN_FWCHILDREN_FWSETACTIONS
do
UNLOAD
    0
&ALL_IN_FWFSMCONFDB_DCS_FWSETACTIONS
if
  1
 ( ANY_IN FWFSMCONFDB_DCS_FWSETSTATES NOT_IN_STATE NOT_READY )
    1    0
    2
FWFSMCONFDB_DCS_FWSETSTATES
any_in
not_in_state
    1
NOT_READY
  1  1
terminate
NOT_READY
*BLOCK
  1  1
terminate
ERROR
*END_ACTION
*ACTION
&END_IN_STATE_WHEN0
    0    0
*BLOCK
  0  0
terminate
ERROR
*END_ACTION
*ACTION
&END_IN_STATE_WHEN1
    0    0
*BLOCK
  0  0
terminate
OFF
*END_ACTION
*ACTION
&END_IN_STATE_WHEN2
    0    0
*BLOCK
  0  0
terminate
NOT_READY
*END_ACTION
*END_STATE
*STATE
OFF
    0
*WHEN
 ( ANY_IN FWCHILDREN_FWSETSTATES IN_STATE {ERROR, EMERGENCY_OFF} )
    1    0
    2
FWCHILDREN_FWSETSTATES
any_in
in_state
    2
ERROR
EMERGENCY_OFF
do
&END_IN_STATE_WHEN0
    0
&THIS_OBJECT
*WHEN
 ( ALL_IN FWCHILDREN_FWSETSTATES IN_STATE READY )
    1    0
    2
FWCHILDREN_FWSETSTATES
all_in
in_state
    1
READY
do
&END_IN_STATE_WHEN1
    0
&THIS_OBJECT
*WHEN
 ( ANY_IN FWCHILDREN_FWSETSTATES NOT_IN_STATE OFF )
    1    0
    2
FWCHILDREN_FWSETSTATES
any_in
not_in_state
    1
OFF
do
&END_IN_STATE_WHEN2
    0
&THIS_OBJECT
*ACTION
SWITCH_ON
    1    0
STRING
RUN_TYPE
"PHYSICS"
*BLOCK
  0  0
do
LOAD
    1
SMODE
RUN_TYPE
&ALL_IN_FWFSMCONFDB_DCS_FWSETACTIONS
if
  1
 ( ANY_IN FWFSMCONFDB_DCS_FWSETSTATES NOT_IN_STATE READY )
    1    0
    2
FWFSMCONFDB_DCS_FWSETSTATES
any_in
not_in_state
    1
READY
  1  1
do
APPLY_RECIPE
    0
&ALL_IN_FWFSMCONFDB_DCS_FWSETACTIONS
do
SWITCH_ON
    1
RUN_TYPE
RUN_TYPE
&ALL_IN_FWCHILDREN_FWSETACTIONS
if
  1
 ( ANY_IN FWCHILDREN_FWSETSTATES NOT_IN_STATE READY )
    1    0
    2
FWCHILDREN_FWSETSTATES
any_in
not_in_state
    1
READY
  2  1
terminate
READY
*BLOCK
  1  1
terminate
ERROR
*BLOCK
  2  1
terminate
NOT_READY
*END_ACTION
*ACTION
DO_EMERGENCY_OFF
    0    0
*BLOCK
  0  0
do
DO_EMERGENCY_OFF
    0
&ALL_IN_FWCHILDREN_FWSETACTIONS
if
  1
 ( ANY_IN FWCHILDREN_FWSETSTATES NOT_IN_STATE EMERGENCY_OFF )
    1    0
    2
FWCHILDREN_FWSETSTATES
any_in
not_in_state
    1
EMERGENCY_OFF
  1  1
terminate
EMERGENCY_OFF
*BLOCK
  1  1
terminate
ERROR
*END_ACTION
*ACTION
RESET
    0    0
*BLOCK
  0  0
do
RESET
    0
&ALL_IN_FWCHILDREN_FWSETACTIONS
do
UNLOAD
    0
&ALL_IN_FWFSMCONFDB_DCS_FWSETACTIONS
if
  1
 ( ANY_IN FWFSMCONFDB_DCS_FWSETSTATES NOT_IN_STATE NOT_READY )
    1    0
    2
FWFSMCONFDB_DCS_FWSETSTATES
any_in
not_in_state
    1
NOT_READY
  1  1
terminate
NOT_READY
*BLOCK
  1  1
terminate
ERROR
*END_ACTION
*ACTION
&END_IN_STATE_WHEN0
    0    0
*BLOCK
  0  0
terminate
ERROR
*END_ACTION
*ACTION
&END_IN_STATE_WHEN1
    0    0
*BLOCK
  0  0
terminate
READY
*END_ACTION
*ACTION
&END_IN_STATE_WHEN2
    0    0
*BLOCK
  0  0
terminate
NOT_READY
*END_ACTION
*END_STATE
*STATE
ERROR
    0
*WHEN
 ( ALL_IN FWCHILDREN_FWSETSTATES IN_STATE EMERGENCY_OFF )
    1    0
    2
FWCHILDREN_FWSETSTATES
all_in
in_state
    1
EMERGENCY_OFF
do
&END_IN_STATE_WHEN0
    0
&THIS_OBJECT
*WHEN
 ( ALL_IN FWCHILDREN_FWSETSTATES NOT_IN_STATE {ERROR,EMERGENCY_OFF} )
    1    0
    2
FWCHILDREN_FWSETSTATES
all_in
not_in_state
    2
ERROR
EMERGENCY_OFF
do
&END_IN_STATE_WHEN1
    0
&THIS_OBJECT
*ACTION
RECOVER
    0    0
*BLOCK
  0  0
do
RECOVER
    0
&ALL_IN_FWCHILDREN_FWSETACTIONS
if
  1
 ( ANY_IN FWCHILDREN_FWSETSTATES IN_STATE ERROR )
    1    0
    2
FWCHILDREN_FWSETSTATES
any_in
in_state
    1
ERROR
  1  1
terminate
NOT_READY
*BLOCK
  1  1
terminate
ERROR
*END_ACTION
*ACTION
DO_EMERGENCY_OFF
    0    0
*BLOCK
  0  0
do
DO_EMERGENCY_OFF
    0
&ALL_IN_FWCHILDREN_FWSETACTIONS
if
  1
 ( ANY_IN FWCHILDREN_FWSETSTATES NOT_IN_STATE EMERGENCY_OFF )
    1    0
    2
FWCHILDREN_FWSETSTATES
any_in
not_in_state
    1
EMERGENCY_OFF
  1  1
terminate
EMERGENCY_OFF
*BLOCK
  1  1
terminate
ERROR
*END_ACTION
*ACTION
&END_IN_STATE_WHEN0
    0    0
*BLOCK
  0  0
terminate
EMERGENCY_OFF
*END_ACTION
*ACTION
&END_IN_STATE_WHEN1
    0    0
*BLOCK
  0  0
terminate
NOT_READY
*END_ACTION
*END_STATE
*STATE
EMERGENCY_OFF
    0
*ACTION
CLEAR_EMERGENCY
    0    0
*BLOCK
  0  0
do
CLEAR_EMERGENCY
    0
&ALL_IN_FWCHILDREN_FWSETACTIONS
terminate
NOT_READY
*END_ACTION
*END_STATE
*END_CLASS
*OBJECT
CODEXB_VTHPHI
    1    0    0
TOP_DCS_DOMAIN_V1_CLASS
*END_OBJECT
*CLASS
FWCHILDRENMODE_CLASS
    0    0
*STATE
COMPLETE
    0
*WHEN
 ( ANY_IN FWDEVMODE_FWSETSTATES IN_STATE DISABLED )
    1    0
    2
FWDEVMODE_FWSETSTATES
any_in
in_state
    1
DISABLED
do
&END_IN_STATE_WHEN0
    0
&THIS_OBJECT
*ACTION
&END_IN_STATE_WHEN0
    0    0
*BLOCK
  0  0
terminate
INCOMPLETEDEV
*END_ACTION
*END_STATE
*STATE
INCOMPLETE
    0
*END_STATE
*STATE
INCOMPLETEDEV
    0
*WHEN
 ( ( ALL_IN FWDEVMODE_FWSETSTATES NOT_IN_STATE DISABLED ) )
    1    0
    2
FWDEVMODE_FWSETSTATES
all_in
not_in_state
    1
DISABLED
do
&END_IN_STATE_WHEN0
    0
&THIS_OBJECT
*ACTION
&END_IN_STATE_WHEN0
    0    0
*BLOCK
  0  0
terminate
COMPLETE
*END_ACTION
*END_STATE
*STATE
INCOMPLETEDEAD
    0
*END_STATE
*END_CLASS
*OBJECT
CODEXB_VTHPHI_FWCNM
    1    0    0
FWCHILDRENMODE_CLASS
*END_OBJECT
*CLASS
FWMODE_CLASS
    0    0
*STATE
EXCLUDED
    0
*ACTION
TAKE
    2    0
STRING
OWNER
""
STRING
EXCLUSIVE
"YES"
*BLOCK
  0  0
terminate
INLOCAL
*END_ACTION
*ACTION
INCLUDE
    2    0
STRING
OWNER
""
STRING
EXCLUSIVE
"YES"
*BLOCK
  0  0
terminate
INCLUDED
*END_ACTION
*ACTION
MANUAL
    0    0
*BLOCK
  0  0
terminate
MANUAL
*END_ACTION
*ACTION
IGNORE
    0    0
*BLOCK
  0  0
terminate
IGNORED
*END_ACTION
*END_STATE
*STATE
INCLUDED
    0
*ACTION
EXCLUDE
    1    0
STRING
OWNER
""
*BLOCK
  0  0
terminate
EXCLUDED
*END_ACTION
*ACTION
MANUAL
    1    0
STRING
OWNER
""
*BLOCK
  0  0
terminate
MANUAL
*END_ACTION
*ACTION
IGNORE
    1    0
STRING
OWNER
""
*BLOCK
  0  0
terminate
IGNORED
*END_ACTION
*ACTION
EXCLUDEALL
    1    0
STRING
OWNER
""
*BLOCK
  0  0
terminate
EXCLUDED
*END_ACTION
*ACTION
INCLUDE
    2    0
STRING
OWNER
""
STRING
EXCLUSIVE
"YES"
*BLOCK
  0  0
terminate
INCLUDED
*END_ACTION
*ACTION
FREE
    1    0
STRING
OWNER
""
*BLOCK
  0  0
terminate
INCLUDED
*END_ACTION
*ACTION
SETMODE
    2    0
STRING
OWNER
""
STRING
EXCLUSIVE
"YES"
*END_ACTION
*END_STATE
*STATE
INLOCAL
    0
*ACTION
RELEASE
    1    0
STRING
OWNER
""
*BLOCK
  0  0
terminate
EXCLUDED
*END_ACTION
*ACTION
RELEASEALL
    1    0
STRING
OWNER
""
*BLOCK
  0  0
terminate
EXCLUDED
*END_ACTION
*ACTION
SETMODE
    2    0
STRING
OWNER
""
STRING
EXCLUSIVE
"YES"
*END_ACTION
*ACTION
TAKE
    2    0
STRING
OWNER
""
STRING
EXCLUSIVE
"YES"
*BLOCK
  0  0
terminate
INLOCAL
*END_ACTION
*END_STATE
*STATE
MANUAL
    0
*ACTION
INCLUDE
    2    0
STRING
OWNER
""
STRING
EXCLUSIVE
"YES"
*BLOCK
  0  0
terminate
INCLUDED
*END_ACTION
*ACTION
TAKE
    1    0
STRING
OWNER
""
*BLOCK
  0  0
terminate
INMANUAL
*END_ACTION
*ACTION
EXCLUDE
    1    0
STRING
OWNER
""
*BLOCK
  0  0
terminate
EXCLUDED
*END_ACTION
*ACTION
IGNORE
    0    0
*BLOCK
  0  0
terminate
IGNORED
*END_ACTION
*ACTION
FREE
    1    0
STRING
OWNER
""
*BLOCK
  0  0
terminate
EXCLUDED
*END_ACTION
*ACTION
EXCLUDEALL
    1    0
STRING
OWNER
""
*BLOCK
  0  0
terminate
EXCLUDED
*END_ACTION
*END_STATE
*STATE
INMANUAL
    0
*ACTION
RELEASE
    1    0
STRING
OWNER
""
*BLOCK
  0  0
terminate
MANUAL
*END_ACTION
*ACTION
SETMODE
    2    0
STRING
OWNER
""
STRING
EXCLUSIVE
"YES"
*END_ACTION
*ACTION
RELEASEALL
    1    0
STRING
OWNER
""
*BLOCK
  0  0
terminate
EXCLUDED
*END_ACTION
*ACTION
SETINLOCAL
    0    0
*BLOCK
  0  0
terminate
INLOCAL
*END_ACTION
*END_STATE
*STATE
IGNORED
    0
*ACTION
INCLUDE
    0    0
*BLOCK
  0  0
terminate
INCLUDED
*END_ACTION
*ACTION
EXCLUDE
    1    0
STRING
OWNER
""
*BLOCK
  0  0
terminate
EXCLUDED
*END_ACTION
*ACTION
MANUAL
    0    0
*BLOCK
  0  0
terminate
MANUAL
*END_ACTION
*ACTION
SETMODE
    2    0
STRING
OWNER
""
STRING
EXCLUSIVE
"YES"
*END_ACTION
*ACTION
FREE
    1    0
STRING
OWNER
""
*BLOCK
  0  0
terminate
INCLUDED
*END_ACTION
*ACTION
EXCLUDEALL
    1    0
STRING
OWNER
""
*BLOCK
  0  0
terminate
EXCLUDED
*END_ACTION
*END_STATE
*END_CLASS
*OBJECT
CODEXB_VTHPHI_FWM
    1    0    0
FWMODE_CLASS
*END_OBJECT
*CLASS
FWCAENCHANNELA2551_FWDEVMODE_CLASS
    0    0
*STATE
READY
    0
*ACTION
DISABLE
    1    0
STRING
DEVICE
&noval
*BLOCK
  0  0
insert
    0
&VAL_OF_DEVICE
FWCAENCHANNELA2551_FWSETSTATES
insert
    0
&VAL_OF_DEVICE
FWCAENCHANNELA2551_FWSETACTIONS
terminate
READY
*END_ACTION
*ACTION
ENABLE
    1    0
STRING
DEVICE
&noval
*BLOCK
  0  0
insert
    1
&VAL_OF_DEVICE
FWCAENCHANNELA2551_FWSETSTATES
insert
    1
&VAL_OF_DEVICE
FWCAENCHANNELA2551_FWSETACTIONS
terminate
READY
*END_ACTION
*END_STATE
*END_CLASS
*OBJECT
FWCAENCHANNELA2551_FWDM
    1    0    0
FWCAENCHANNELA2551_FWDEVMODE_CLASS
*END_OBJECT
*CLASS
FWCAENCHANNELA2551_CLASS
    1    1
ASSOCIATED
*PARAMETERS
STRING
EXTERNALY
"UNKNOWN"
*END_PARAMETERS
*STATE
READY
    0
*ACTION
SWITCH_OFF
    0    0
*END_ACTION
*ACTION
DO_EMERGENCY_OFF
    0    0
*END_ACTION
*END_STATE
*STATE
OFF
    0
*ACTION
SWITCH_ON
    1    0
STRING
RUN_TYPE
"PHYSICS"
*END_ACTION
*ACTION
DO_EMERGENCY_OFF
    0    0
*END_ACTION
*END_STATE
*STATE
ERROR
    0
*ACTION
RECOVER
    0    0
*END_ACTION
*END_STATE
*STATE
EMERGENCY_OFF
    0
*ACTION
CLEAR_EMERGENCY
    0    0
*END_ACTION
*END_STATE
*STATE
NOT_READY
    0
*ACTION
DO_EMERGENCY_OFF
    0    0
*END_ACTION
*ACTION
SWITCH_OFF
    0    0
*END_ACTION
*END_STATE
*END_CLASS
*OBJECT
CAEN:CXCAEN01:BOARD10:CHANNEL001
    1    0    1
FWCAENCHANNELA2551_CLASS
*END_OBJECT
*OBJECT
CAEN:CXCAEN01:BOARD10:CHANNEL005
    1    0    1
FWCAENCHANNELA2551_CLASS
*END_OBJECT
*OBJECT
CAEN:CXCAEN01:BOARD11:CHANNEL001
    1    0    1
FWCAENCHANNELA2551_CLASS
*END_OBJECT
*OBJECT
CAEN:CXCAEN01:BOARD11:CHANNEL005
    1    0    1
FWCAENCHANNELA2551_CLASS
*END_OBJECT
*OBJECT
CAEN:CXCAEN01:BOARD12:CHANNEL001
    1    0    1
FWCAENCHANNELA2551_CLASS
*END_OBJECT
*OBJECT
CAEN:CXCAEN01:BOARD12:CHANNEL005
    1    0    1
FWCAENCHANNELA2551_CLASS
*END_OBJECT
*OBJECT
CAEN:CXCAEN01:BOARD13:CHANNEL001
    1    0    1
FWCAENCHANNELA2551_CLASS
*END_OBJECT
*OBJECTSET
FWCAENCHANNELA2551_FWSETSTATES
    1    7
VOID
CAEN:CXCAEN01:BOARD10:CHANNEL001
CAEN:CXCAEN01:BOARD10:CHANNEL005
CAEN:CXCAEN01:BOARD11:CHANNEL001
CAEN:CXCAEN01:BOARD11:CHANNEL005
CAEN:CXCAEN01:BOARD12:CHANNEL001
CAEN:CXCAEN01:BOARD12:CHANNEL005
CAEN:CXCAEN01:BOARD13:CHANNEL001
*END_OBJECTSET
*OBJECTSET
FWCAENCHANNELA2551_FWSETACTIONS
    1    7
VOID
CAEN:CXCAEN01:BOARD10:CHANNEL001
CAEN:CXCAEN01:BOARD10:CHANNEL005
CAEN:CXCAEN01:BOARD11:CHANNEL001
CAEN:CXCAEN01:BOARD11:CHANNEL005
CAEN:CXCAEN01:BOARD12:CHANNEL001
CAEN:CXCAEN01:BOARD12:CHANNEL005
CAEN:CXCAEN01:BOARD13:CHANNEL001
*END_OBJECTSET
*CLASS
FWFSMCONFDB_DCS_FWDEVMODE_CLASS
    0    0
*STATE
READY
    0
*ACTION
DISABLE
    1    0
STRING
DEVICE
&noval
*BLOCK
  0  0
insert
    0
&VAL_OF_DEVICE
FWFSMCONFDB_DCS_FWSETSTATES
insert
    0
&VAL_OF_DEVICE
FWFSMCONFDB_DCS_FWSETACTIONS
terminate
READY
*END_ACTION
*ACTION
ENABLE
    1    0
STRING
DEVICE
&noval
*BLOCK
  0  0
insert
    1
&VAL_OF_DEVICE
FWFSMCONFDB_DCS_FWSETSTATES
insert
    1
&VAL_OF_DEVICE
FWFSMCONFDB_DCS_FWSETACTIONS
terminate
READY
*END_ACTION
*END_STATE
*END_CLASS
*OBJECT
FWFSMCONFDB_DCS_FWDM
    1    0    0
FWFSMCONFDB_DCS_FWDEVMODE_CLASS
*END_OBJECT
*CLASS
FWFSMCONFDB_DCS_CLASS
    1    1
ASSOCIATED
*STATE
NOT_READY
    0
*ACTION
LOAD
    1    0
STRING
SMODE
"PHYSICS"
*END_ACTION
*ACTION
SWITCH_ON
    0    0
*END_ACTION
*ACTION
SWITCH_OFF
    0    0
*END_ACTION
*ACTION
DO_EMERGENCY_OFF
    0    0
*END_ACTION
*ACTION
APPLY_RECIPE
    1    0
STRING
SMODE
"PHYSICS"
*END_ACTION
*END_STATE
*STATE
OFF
    0
*ACTION
SWITCH_ON
    0    0
*END_ACTION
*ACTION
APPLY_RECIPE
    1    0
STRING
SMODE
"PHYSICS"
*END_ACTION
*ACTION
LOAD
    1    0
STRING
SMODE
"PHYSICS"
*END_ACTION
*ACTION
UNLOAD
    0    0
*END_ACTION
*ACTION
DO_EMERGENCY_OFF
    0    0
*END_ACTION
*END_STATE
*STATE
READY
    0
*ACTION
APPLY_RECIPE
    1    0
STRING
SMODE
"PHYSICS"
*END_ACTION
*ACTION
SWITCH_OFF
    0    0
*END_ACTION
*ACTION
SWITCH_ON
    0    0
*END_ACTION
*ACTION
UNLOAD
    0    0
*END_ACTION
*ACTION
LOAD
    1    0
STRING
SMODE
"PHYSICS"
*END_ACTION
*ACTION
DO_EMERGENCY_OFF
    0    0
*END_ACTION
*END_STATE
*STATE
ERROR
    0
*ACTION
RECOVER
    0    0
*END_ACTION
*ACTION
DO_EMERGENCY_OFF
    0    0
*END_ACTION
*END_STATE
*STATE
EMERGENCY_OFF
    0
*ACTION
CLEAR_EMERGENCY
    0    0
*END_ACTION
*END_STATE
*END_CLASS
*OBJECT
CODEXB_VTHPHI_CONFDB
    1    0    1
FWFSMCONFDB_DCS_CLASS
*END_OBJECT
*OBJECTSET
FWFSMCONFDB_DCS_FWSETSTATES
    1    1
VOID
CODEXB_VTHPHI_CONFDB
*END_OBJECTSET
*OBJECTSET
FWFSMCONFDB_DCS_FWSETACTIONS
    1    1
VOID
CODEXB_VTHPHI_CONFDB
*END_OBJECTSET
*CLASS
FWDEVMODE_FWDEVMODE_CLASS
    0    0
*STATE
READY
    0
*ACTION
DISABLE
    1    0
STRING
DEVICE
&noval
*BLOCK
  0  0
insert
    0
&VAL_OF_DEVICE
FWDEVMODE_FWSETSTATES
insert
    0
&VAL_OF_DEVICE
FWDEVMODE_FWSETACTIONS
terminate
READY
*END_ACTION
*ACTION
ENABLE
    1    0
STRING
DEVICE
&noval
*BLOCK
  0  0
insert
    1
&VAL_OF_DEVICE
FWDEVMODE_FWSETSTATES
insert
    1
&VAL_OF_DEVICE
FWDEVMODE_FWSETACTIONS
terminate
READY
*END_ACTION
*END_STATE
*END_CLASS
*OBJECT
FWDEVMODE_FWDM
    1    0    0
FWDEVMODE_FWDEVMODE_CLASS
*END_OBJECT
*CLASS
FWDEVMODE_CLASS
    1    1
ASSOCIATED
*STATE
ENABLED
    0
*END_STATE
*STATE
DISABLED
    0
*END_STATE
*END_CLASS
*OBJECT
CODEXB_VTHPHI_FWDM
    1    0    1
FWDEVMODE_CLASS
*END_OBJECT
*OBJECTSET
FWDEVMODE_FWSETSTATES
    1    1
VOID
CODEXB_VTHPHI_FWDM
*END_OBJECTSET
*OBJECTSET
FWDEVMODE_FWSETACTIONS
    1    1
VOID
CODEXB_VTHPHI_FWDM
*END_OBJECTSET
*OBJECTSETUNION
FWCHILDREN_FWSETACTIONS
    2
FWCAENCHANNELA2551_FWSETACTIONS
FWFSMCONFDB_DCS_FWSETACTIONS
*END_OBJECTSETUNION
*OBJECTSETUNION
FWCHILDREN_FWSETSTATES
    2
FWCAENCHANNELA2551_FWSETSTATES
FWFSMCONFDB_DCS_FWSETSTATES
*END_OBJECTSETUNION
